%NProcShared=4
# Opt Freq SCRF=(CPCM,Solvent=Water) Here could be your advertisement PM3

Molecule

0 1
C   3.5415   0.3051   1.0795
C   2.3567  -0.3283   0.4337
O   2.5047  -1.3918  -0.2272
O   1.1198   0.3276   0.4801
C  -0.1161  -0.2426   0.1336
C  -0.3634  -1.6133   0.3460
C  -1.5973  -2.1725   0.0131
C  -2.6035  -1.3734  -0.5247
C  -2.3836  -0.0097  -0.7239
C  -1.1460   0.5761  -0.3947
C  -0.9555   2.0325  -0.6221
O   0.1441   2.5917  -0.3638
O  -1.9998   2.8022  -1.1292
H   4.0684   0.9433   0.3402
H   4.2371  -0.4761   1.4525
H   3.2149   0.9320   1.9354
H   0.3864  -2.2484   0.7976
H  -1.7765  -3.2267   0.1812
H  -3.5604  -1.8098  -0.7807
H  -3.1876   0.5865  -1.1368
H  -1.8843   3.7958  -1.2898

